*Heading
** Job name: Job-valid Model name: Model-1
** Generated by: Abaqus/CAE 6.14-1
*Preprint, echo=NO, model=NO, history=NO, contact=NO
**
** PARTS
**
*Part, name=Part-1
*Node
      1,   9.04329109,   7.30969906
      2,   8.23223305,   6.76776695
      3,   7.69030094,   5.95670843
      4,          7.5,           5.
      5,   7.69030094,   4.04329157
      6,   8.23223305,   3.23223305
      7,   9.04329109,   2.69030118
      8,          10.,          2.5
      9,   10.9567089,   2.69030118
     10,    11.767767,   3.23223305
     11,   12.3096991,   4.04329157
     12,         12.5,           5.
     13,   12.3096991,   5.95670843
     14,    11.767767,   6.76776695
     15,   10.9567089,   7.30969906
     16,          10.,          7.5
     17,          20.,           0.
     18,           0.,           0.
     19,          20.,          10.
     20,           0.,          10.
** ... 220 like lines cut
*Element, type=CPS3
  1, 139, 124,  77
  2,  78,  77,  14
  3, 178, 165, 127
  4, 140, 109, 108
  5, 111,  44, 110
  6,  81,  80,  11
  7,  82,  81,  10
  8, 100,  82,  83
  9, 141, 100,  99
 10, 142, 103,  84
 11,  85,  84,   6
 12,  86,  85,   5
 13, 133,  72, 132
 14,  88,  87,   3
 15,  89,  88,   2
 16, 121,  89,  90
 17, 143, 121, 120
 18, 124,  91,  77
 19, 103,  92,  84
 20,  93,  39,  38
** ... 384 like lines cut
*Nset, nset=Set-1, generate
   1,  240,    1
*Elset, elset=Set-1, generate
   1,  404,    1
** Section: Section-1
*Solid Section, elset=Set-1, material=Material-1
1.,
*End Part
**  
**
** ASSEMBLY
**
*Assembly, name=Assembly
**  
*Instance, name=Part-1-1, part=Part-1
*End Instance
**  
*Nset, nset=Set-1, instance=Part-1-1
 18, 20, 68, 69, 70, 71, 72, 73, 74, 75, 76
*Elset, elset=Set-1, instance=Part-1-1
  49,  68, 184, 186, 188, 190, 192, 194, 195, 245
*Elset, elset=_Surf-1_S2, internal, instance=Part-1-1
  21,  40, 139, 142, 144, 146, 148, 150, 151, 226
*Surface, type=ELEMENT, name=Surf-1
_Surf-1_S2, S2
*End Assembly
** 
** MATERIALS
** 
*Material, name=Material-1
*Elastic
300000., 0.3
** ----------------------------------------------------------------
** 
** STEP: Step-1
** 
*Step, name=Step-1, nlgeom=NO
*Static
1., 1., 1e-05, 1.
** 
** BOUNDARY CONDITIONS
** 
** Name: BC-1 Type: Displacement/Rotation
*Boundary
Set-1, 1, 1
Set-1, 2, 2
** 
** LOADS
** 
** Name: Load-1   Type: Pressure
*Dsload
Surf-1, P, -200.
** 
** OUTPUT REQUESTS
** 
*Restart, write, frequency=0
** 
** FIELD OUTPUT: F-Output-1
** 
*Output, field, variable=PRESELECT
** 
** HISTORY OUTPUT: H-Output-1
** 
*Output, history, variable=PRESELECT
*End Step
