*Heading
** Job name: Job-1 Model name: Model-1
** Generated by: Abaqus/CAE 6.14-1
*Preprint, echo=NO, model=NO, history=NO, contact=NO
**
** PARTS
**
*Part, name=Part-1
*Node
      1,           0.,           0.
      2,           1.,           0.
      3,           2.,           0.
      4,           3.,           0.
      5,           4.,           0.
      6,           5.,           0.
      7,           6.,           0.
      8,           7.,           0.
      9,           8.,           0.
     10,           9.,           0.
     11,          10.,           0.
     12,          11.,           0.
     13,          12.,           0.
     14,          13.,           0.
     15,          14.,           0.
     16,          15.,           0.
     17,          16.,           0.
     18,          17.,           0.
     19,          18.,           0.
     20,          19.,           0.
** ... 211 like lines cut
*Element, type=CPS3
  1,   1,   2,  23
  2,  23,  22,   1
  3,   2,   3,  24
  4,  24,  23,   2
  5,   3,   4,  25
  6,  25,  24,   3
  7,   4,   5,  26
  8,  26,  25,   4
  9,   5,   6,  27
 10,  27,  26,   5
 11,   6,   7,  28
 12,  28,  27,   6
 13,   7,   8,  29
 14,  29,  28,   7
 15,   8,   9,  30
 16,  30,  29,   8
 17,   9,  10,  31
 18,  31,  30,   9
 19,  10,  11,  32
 20,  32,  31,  10
** ... 380 like lines cut
*Nset, nset=Set-2, generate
   1,  231,    1
*Elset, elset=Set-2, generate
   1,  400,    1
** Section: Section-1
*Solid Section, elset=Set-2, material=Material-1
,
*End Part
**  
**
** ASSEMBLY
**
*Assembly, name=Assembly
**  
*Instance, name=Part-1-1, part=Part-1
*End Instance
**  
*End Assembly
** 
** MATERIALS
** 
*Material, name=Material-1
*Elastic
300000., 0.3
