*Heading
** Job name: Job-Multihole Model name: Model-1
** Generated by: Abaqus/CAE 6.14-1
*Preprint, echo=NO, model=NO, history=NO, contact=NO
**
** PARTS
**
*Part, name=Part-1
*Node
      1,   45.3968658,   3.64839792
      2,   46.4614639,   2.72591996
      3,   47.8557854,   2.52544641
      4,   48.5385361,   2.72591996
      5,   49.6031342,   3.64839792
      6,          50.,           5.
      7,   49.6031342,   6.35160208
      8,   48.5385361,    7.2740798
      9,   47.8557854,   7.47455359
     10,   46.4614639,    7.2740798
     11,   45.3968658,   6.35160208
     12,          45.,           5.
     13,   9.60313416,   6.35160208
     14,   8.53853798,    7.2740798
     15,   7.85578728,   7.47455359
     16,    6.4614625,    7.2740798
     17,   5.39686632,   6.35160208
     18,           5.,           5.
     19,   5.39686632,   3.64839792
     20,    6.4614625,   2.72591996
** ... 1080 like lines cut
*Element, type=CPS3
   1,  452,   64,  360
   2,  725,  680,  259
   3,  680,    3,  621
   4,  682,  621,  309
   5,  715,  621,  682
   6, 1060,  682,  607
   7,  517,  364,  363
   8,  517,  257,  453
   9,  454,   66,  362
  10,  516,  454,  362
  11,  601,  361,  515
  12,  601,  516,   65
  13,  913,  853,  261
  14,  680,  606,    4
  15,  654,    5,  310
  16,  831,  654,  606
  17,  907,  226,  831
  18, 1056, 1039,  262
  19, 1074, 1071,  263
  20,  690,  689,  104
** ... 1892 like lines cut
*Nset, nset=Set-1, generate
    1,  1100,     1
*Elset, elset=Set-1, generate
    1,  1912,     1
** Section: Section-1
*Solid Section, elset=Set-1, material=Material-1
,
*End Part
**  
**
** ASSEMBLY
**
*Assembly, name=Assembly
**  
*Instance, name=Part-1-1, part=Part-1
*End Instance
**  
*End Assembly
** 
** MATERIALS
** 
*Material, name=Material-1
*Elastic
300., 0.3
